FoamFile
{
    version     2.0;
    format      ascii;
    class       dictionary;
    location    "constant";
    object      transportProperties;
}

// relative permeability of Neodymium magnet: 1.05
// relative permeability of 99.8% pure Iron: 5000
// remanence of Neodymium magnet: 1 to 1.3 T
// format: magnets <name> <relative permeability> <remanence> <orientation>
magnets
(
//    (magnet_surface_top     1.05 1.3 (0 1 0))
//    (magnet_surface_bottom  1.05 1.3 (0 1 0))
//    (magnet_surface_side    1.05 1.3 (1 0 0))
);

