
FoamFile
{
    version     2.0;
    format      ascii;
    class       dictionary;
    location    "system";
    object      changeDictionaryDict;
}

boundary
{
    "wedge.*"
    {
        type            wedge;
    	physicalType	wedge;
	}

    magnet_surface_side
    {
        type patch;
        physicalType patch;
    }

    magnet_surface_top
    {
        type patch;
        physicalType patch;
    }

    magnet_surface_bottom
    {
        type patch;
        physicalType patch;
    }

    fringe
    {
        type patch;
        physicalType patch;
    }
}

