FoamFile
{
    version     2.0;
    format      ascii;
    class       dictionary;
    location    "system";
    object      fvSolution;
}

solvers
{
    psi
    {
        solver      GAMG;
        smoother    DIC;
        tolerance   1e-06;
        // if only 1 timestep is performed, relTol will be effective tolerance.
        relTol      1e-06;
    }
}

SIMPLE
{
    nNonOrthogonalCorrectors 3;
    residualControl
    {
        psi 1e-5;
    }
}

